#!/bin/bash 
# vi: ft=sh
DOTFILES=~/dotfiles

if [ -d ~/.vim/bundle ]; then
    rm -rf ~/.vim/bundle/*
else
    mkdir ~/.vim/bundle
fi
git clone https://github.com/VundleVim/Vundle.vim.git ~/.vim/bundle/Vundle.vim

MODPATH=$DOTFILES/vim_mods
{
    echo "set nocp"
    echo "filetype off"
    echo "set rtp+=~/.vim/bundle/Vundle.vim"
    echo "call vundle#begin()"
    while read vmod; do
        echo "Plugin '$vmod'"
    done < $MODPATH
    echo "call vundle#end()"
    echo "filetype plugin indent on"
} > ~/.vimrc

vim +PluginInstall +qall
